Version 4
SHEET 1 984 680
WIRE 256 -32 128 -32
WIRE 368 -32 256 -32
WIRE 368 -16 368 -32
WIRE 288 32 256 32
WIRE 304 32 288 32
WIRE 368 96 368 80
WIRE 128 112 128 -32
WIRE 256 112 256 32
WIRE 368 112 368 96
WIRE 128 272 128 192
WIRE 256 272 256 192
WIRE 256 272 128 272
WIRE 368 272 368 192
WIRE 368 272 256 272
WIRE 368 304 368 272
FLAG 368 304 0
FLAG 256 -32 V1
FLAG 368 96 C
FLAG 288 32 B
SYMBOL voltage 128 96 R0
WINDOW 123 0 0 Left 0
WINDOW 39 0 0 Left 0
SYMATTR InstName V1
SYMATTR Value {Vcc}
SYMBOL res 240 96 R0
SYMATTR InstName Rb
SYMATTR Value {Rb}
SYMBOL res 352 96 R0
SYMATTR InstName Rc
SYMATTR Value {Rc}
SYMBOL pnp 304 80 M180
SYMATTR InstName Q1
SYMATTR Value BC557B
TEXT 120 312 Left 2 !.op
TEXT 120 352 Left 2 !.param Vcc=50 Rb=680k Rc=100
TEXT 552 32 Left 2 !.meas VRc param V(c)
TEXT 552 64 Left 2 !.meas VRb param V(b)
TEXT 552 96 Left 2 !.meas PRb param VRb*I(Rb)
TEXT 552 128 Left 2 !.meas PRc param VRc*I(Rc)
TEXT 552 160 Left 2 !.meas Beta param I(Rc)/I(Rb)
