Version 4
SHEET 1 988 680
WIRE -16 32 -48 32
WIRE 112 32 64 32
WIRE -144 160 -192 160
WIRE -48 160 -48 32
WIRE -48 160 -64 160
WIRE -16 160 -48 160
WIRE 112 176 112 32
WIRE 112 176 48 176
WIRE 176 176 112 176
WIRE -640 192 -640 176
WIRE -640 192 -688 192
WIRE -16 192 -48 192
WIRE -688 208 -688 192
WIRE -192 208 -192 160
WIRE -640 224 -640 192
WIRE -48 224 -48 192
WIRE 176 224 176 176
WIRE -192 288 -192 208
WIRE 176 336 176 304
WIRE -192 400 -192 368
FLAG 16 144 Vpp
FLAG 16 208 Vnn
FLAG -688 208 0
FLAG -640 96 Vpp
FLAG -640 304 Vnn
FLAG -192 400 0
FLAG 176 176 out
FLAG 176 336 0
FLAG -192 208 i
FLAG -48 224 0
SYMBOL Opamps\\opamp2 16 112 R0
SYMATTR InstName U1
SYMATTR Value LMX24
SYMBOL voltage -640 80 R0
SYMATTR InstName V1
SYMATTR Value {Vpp}
SYMBOL voltage -640 208 R0
SYMATTR InstName V2
SYMATTR Value {Vnn}
SYMBOL voltage -192 272 R0
SYMATTR InstName Vi
SYMATTR Value {Vi}
SYMBOL res 160 208 R0
SYMATTR InstName R0
SYMATTR Value 1k
SYMBOL res -48 144 R90
WINDOW 0 0 56 VBottom 2
WINDOW 3 32 56 VTop 2
SYMATTR InstName R1
SYMATTR Value {R1}
SYMBOL res 80 16 R90
WINDOW 0 0 56 VBottom 2
WINDOW 3 32 56 VTop 2
SYMATTR InstName R2
SYMATTR Value {R2}
TEXT -464 -56 Left 2 !.include A:\\Dropbox\\GitHub\\quiz2matlab\\et52b\\lab13\\LMx24.lib
TEXT -128 448 Left 2 !.param Vpp=10 Vnn=10 R1=1k R2= 1k Vi=2
TEXT -120 472 Left 2 !.op
TEXT -112 512 Left 2 !.meas Gio param V(out)/V(i)
