Version 4
SHEET 1 880 680
SYMBOL njf 128 128 R0
SYMATTR InstName J1
SYMATTR Value MyJFET
TEXT 40 304 Left 2 !.model MyJFET NJF(Lambda=.001)
