Version 4
SHEET 1 1608 976
WIRE 128 -16 -32 -16
WIRE 288 -16 128 -16
WIRE -32 48 -32 -16
WIRE 128 64 128 -16
WIRE 288 64 288 -16
WIRE -32 176 -32 128
WIRE 288 176 288 144
WIRE 400 176 288 176
WIRE 528 176 464 176
WIRE 288 208 288 176
WIRE 528 240 528 176
WIRE 16 256 -128 256
WIRE 128 256 128 144
WIRE 128 256 80 256
WIRE 224 256 128 256
WIRE -128 288 -128 256
WIRE 288 400 288 304
WIRE 528 400 528 320
WIRE -128 416 -128 368
WIRE 48 704 -128 704
WIRE 176 704 48 704
WIRE 272 704 224 704
WIRE 416 704 352 704
WIRE 48 736 48 704
WIRE -128 752 -128 704
WIRE 224 752 224 704
WIRE 416 752 416 704
WIRE 176 768 176 704
WIRE -128 864 -128 832
WIRE 48 864 48 816
WIRE 48 864 -128 864
WIRE 176 864 176 816
WIRE 176 864 48 864
WIRE 224 864 224 832
WIRE 224 864 176 864
WIRE 416 864 416 832
WIRE 416 864 224 864
WIRE 176 896 176 864
FLAG -32 176 0
FLAG 288 400 0
FLAG -128 416 0
FLAG 128 -16 cc
FLAG -128 256 CAin
FLAG 528 400 0
FLAG 528 176 CAout
FLAG 128 256 B
FLAG 288 176 C
FLAG 176 896 0
FLAG 416 704 ModelOut
SYMBOL res 112 48 R0
SYMATTR InstName Rb
SYMATTR Value {Rb}
SYMBOL res 272 48 R0
SYMATTR InstName Rc
SYMATTR Value {Rc}
SYMBOL voltage -32 32 R0
WINDOW 123 0 0 Left 0
WINDOW 39 0 0 Left 0
SYMATTR InstName Vcc
SYMATTR Value {Vcc}
SYMBOL npn 224 208 R0
SYMATTR InstName Q1
SYMATTR Value TBJ
SYMBOL cap 80 240 R90
WINDOW 0 0 32 VBottom 2
WINDOW 3 32 32 VTop 2
SYMATTR InstName Ci
SYMATTR Value 100µ
SYMBOL cap 464 160 R90
WINDOW 0 0 32 VBottom 2
WINDOW 3 32 32 VTop 2
SYMATTR InstName Co
SYMATTR Value 100µ
SYMBOL voltage -128 272 R0
WINDOW 123 0 0 Left 0
WINDOW 39 0 0 Left 0
SYMATTR InstName Vca
SYMATTR Value SINE(0 {Vipk} {fi})
SYMBOL res 512 224 R0
SYMATTR InstName RL
SYMATTR Value {RL}
SYMBOL res 32 720 R0
SYMATTR InstName Zi
SYMATTR Value {Zi}
SYMBOL res 368 688 R90
WINDOW 0 0 56 VBottom 2
WINDOW 3 32 56 VTop 2
SYMATTR InstName Zo
SYMATTR Value {Zo}
SYMBOL e 224 736 R0
SYMATTR InstName E1
SYMATTR Value {Av}
SYMBOL voltage -128 736 R0
WINDOW 123 0 0 Left 0
WINDOW 39 0 0 Left 0
WINDOW 3 -285 54 Left 2
SYMATTR InstName Vca1
SYMATTR Value SINE(0 {Vipk} {fi})
SYMBOL res 400 736 R0
SYMATTR InstName RL1
SYMATTR Value {RL}
TEXT -144 520 Left 2 !.tran 0 0.01 0
TEXT -144 456 Left 2 !.param Vcc=30 Rb=820k Rc=680 RL=100k Vipk=0.01m fi=10k
TEXT -144 960 Left 2 !.param Zi=724 Zo=627.038 Av=-360.973
TEXT -144 488 Left 2 !.model TBJ NPN(IS=10F BF=350 VAF=100)
