Version 4
SHEET 1 912 680
WIRE 128 0 48 0
WIRE 256 0 192 0
WIRE 304 0 256 0
WIRE 48 48 48 0
WIRE 304 48 304 0
WIRE 48 160 48 128
WIRE 304 160 304 128
WIRE 304 160 48 160
WIRE 48 192 48 160
FLAG 48 192 0
FLAG 256 0 R1
FLAG 48 0 V1
SYMBOL voltage 48 32 R0
WINDOW 123 0 0 Left 0
WINDOW 39 0 0 Left 0
SYMATTR InstName V1
SYMATTR Value {Vcc}
SYMBOL diode 128 16 R270
WINDOW 0 32 32 VTop 2
WINDOW 3 0 32 VBottom 2
SYMATTR InstName D1
SYMATTR Value 1N4148
SYMBOL res 288 32 R0
SYMATTR InstName R1
SYMATTR Value {R1}
TEXT 120 176 Left 2 !.op
TEXT 120 208 Left 2 !.param Vcc=25 R1=1.2k
TEXT 416 16 Left 2 !.meas Vd param V(V1)-V(R1)
TEXT 416 56 Left 2 !.meas Pd param Vd*I(D1)
